Circuit: * C:\Users\Chocl\AppData\Local\LTspice\Simulacion pedal fuzz PARA PRUEBAS.asc

Warning: Multiple definitions of model "2scr375p" Type: BJT
Warning: Multiple definitions of model "bc857b" Type: BJT
Warning: Multiple definitions of model "bc847c" Type: BJT
Warning: Multiple definitions of model "bc847b" Type: BJT
Direct Newton iteration for .op point succeeded.

Date: Mon May 19 14:27:54 2025
Total elapsed time: 42.558 seconds.

tnom = 27
temp = 27
method = modified trap
totiter = 4077439
traniter = 4077423
tranpoints = 2032027
accept = 1992713
rejected = 39314
matrix size = 11
fillins = 2
solver = Normal
Avg thread counts: 1.0/1.0/1.0/1.0
Matrix Compiler1: 770 bytes object code size  0.5/0.5/[0.5]
Matrix Compiler2: off  [0.3]/0.6/0.3

